{@name is used to define @link(TCustomModflowWriter) which is an abstract
 base class for writing MODFLOW input files.

@author(Richard B. Winston <rbwinst@usgs.gov>)}
unit CustomModflowWriterUnit;

interface

uses Windows, Types, LayerStructureUnit, ModflowTimeUnit, FluxObservationUnit,
  SysUtils, Classes, Contnrs, Forms, RbwParser, AbstractGridUnit,
  SubscriptionUnit, GoPhastTypes, DataSetUnit, PhastModelUnit, ModflowCellUnit,
  ModflowOutputControlUnit, ScreenObjectUnit, ModflowBoundaryUnit,
  ModflowPackageSelectionUnit, ModflowTransientListParameterUnit,
  OrderedCollectionUnit, ModflowBoundaryDisplayUnit, ModflowParameterUnit,
  System.Generics.Collections;

type
  // @name indicates whether the file in the name file is an input file
  // and output file or undetermined.
  TFileOption = (foNone, foInput, foOutput, foInputAlreadyExists);

  TModflowArrayType = (matStructured, matUnstructured, mat1D);

  {@name is used in @link(TCustomModflowWriter.CheckArray)
   @value(cvmGreater If the value in the array is greater than
     CheckValue in @link(TCustomModflowWriter.CheckArray),
     the value in the array is OK.)
   @value(cvmGreaterEqual If the value in the array is greater than or equal to
     CheckValue in @link(TCustomModflowWriter.CheckArray),
     the value in the array is OK.)
   @value(cvmEqual If the value in the array is equal to
     CheckValue in @link(TCustomModflowWriter.CheckArray),
     the value in the array is OK.)
   @value(cvmNotEqual If the value in the array is not equal to
     CheckValue in @link(TCustomModflowWriter.CheckArray),
     the value in the array is OK.)
   @value(cvmLessThan If the value in the array is less than
     CheckValue in @link(TCustomModflowWriter.CheckArray),
     the value in the array is OK.)
   @value(cvmLessThanEqual If the value in the array is less than or equal to
     CheckValue in @link(TCustomModflowWriter.CheckArray),
     the value in the array is OK.)
  }
  TCheckValueMethod = (cvmGreater, cvmGreaterEqual, cvmEqual,
    cvmNotEqual, cvmLessThan, cvmLessThanEqual, cvmGradient);

  {@name is used in @link(TCustomModflowWriter.CheckArray) to specify
    whether cases that don't pass the check should be treated as errors or
    warnings.
    @value(etError If something doesn't pass the check, it should be treated
      as an error.)
    @value(etWarning If something doesn't pass the check, it should be treated
      as a warning.)
      }
  TErrorType = (etError, etWarning);
  TArrayWritingFormat = (awfModflow, awfMt3dms, awfModflow_6);

  TCustomFileWriter = class(TObject)
  strict private
    // name is the file that is created by @classname.
    FFileStream: TFileStream;
  private
    // See @link(Model).
    FModel: TCustomModel;
  protected
    FEvaluationType: TEvaluationType;
    // @name closes the file that is being exported.
    // @seealso(OpenFile)
    procedure CloseFile;
    // @name opens the input file to be exported.
    // @seealso(CloseFile)
    procedure OpenFile(const FileName: string);
    // @name generates a comment line for a MODFLOW input file indentifying
    // the file type
    function File_Comment(const FileID: string): string;
    // @name writes a comment line to the output file.
    procedure WriteCommentLine(const Comment: string);
    // @name returns the extension (including the initial period) for the
    // MODFLOW input file to be exported.
    class function Extension: string; virtual; abstract;
  public
    // @name converts AFileName to use the correct extension for the file.
    class function FileName(const AFileName: string): string;
    {@name is the model to be exported.}
    property Model: TCustomModel read FModel;
    // the period as the decimal separator.
    class Function FortranDecimal(NumberString : string) : string;
    // @name converts "Value" to an string padded at the beginning with blank
    // characters so that the resulting string as a length of "Width".
    class function FixedFormattedInteger(const Value, Width: integer): string;
    // @name converts "Value" to an string padded at the beginning with blank
    // characters so that the resulting string as a length of "Width".
    class function FixedFormattedReal(const Value : double;
      const Width : integer) : string;
    // @name converts "Value" to a string.  The decimal separator will
    // always be a period.
    class function FreeFormattedReal(const Value : double) : string;
    // @name creates and instance of @classname.
    // @param(Model is the @link(TCustomModel) to be exported.)
    Constructor Create(AModel: TCustomModel; EvaluationType: TEvaluationType); virtual;
    // @name writes an end of line to the output file.
    procedure NewLine; virtual;
    // @name writes Value to the output with a leading blank space.
    procedure WriteFloat(const Value: double);
    procedure WriteFloatCondensed(const Value: double);
    procedure WriteF10Float(const Value: double);
    // @name writes Value to the output with a leading blank space.
    procedure WriteInteger(Const Value: integer);
    // @name writes Value to the output in I10 format.
    procedure WriteI10Integer(Const Value: integer; const ErrorID: string);
    // @name writes Value to the output in I2 format.
    procedure WriteI2Integer(Const Value: integer; const ErrorID: string);
    // @name writes Value to the output with NO leading blank space.
    procedure WriteString(const Value: String); overload;
    procedure WriteString(const Value: AnsiString); overload; virtual;
  end;

  { @name is an abstract base class used as an ancestor for classes that
    write MODFLOW input files.
  }
  TCustomModflowWriter = class(TCustomFileWriter)
  private

    // @name writes a header for DataArray using either
    // @link(WriteConstantU2DINT) or @link(WriteU2DRELHeader).
    procedure WriteHeader(const DataArray: TDataArray;
      const Comment: string; const MF6_ArrayName: string);
    function CheckArrayUniform(const LayerIndex: Integer;
      const DataArray: TDataArray): boolean;
    procedure WriteArrayValues(const LayerIndex: Integer;
      const DataArray: TDataArray);
  protected
    FArrayWritingFormat: TArrayWritingFormat;

    // @name generates a comment line for a MODFLOW input file indentifying
    // the package.
    function PackageID_Comment(APackage: TModflowPackageSelection): string; virtual;
    // @name writes Lines as comments.
    procedure WriteCommentLines(const Lines: TStrings);
    // @name returns the proper IPRN for specifying whether to print an
    // integer input array
    function IPRN_Integer: integer;
    function IPRN_Mt3dms_Integer: integer;
    // @name returns the proper IPRN for specifying whether to print an
    // real number input array
    function IPRN_Real: integer;
    function IPRN_Mt3dms_Real: integer;
    // @name retrieves the proper unit number for the cell-by-cell flow
    // file.
    procedure GetFlowUnitNumber(var UnitNumber: Integer); virtual;
    // @name writes a U2DREL array based on the contents of List.
    //  List is sometimes a @link(TValueCellList)
    // or a list of list of @link(TValueCellList)
    // or a TList.
    // DataTypeIndex indicates which parameter of the @link(TValueCell)
    // to use.
    // DataType indicates what sort of information in the TList.
    // DefaultValue indicates the proper default parameter for the gridded data.
    // If FreeArray is @true, TransientArray will be set to nil.
    // If FreeArray is @false, TransientArray will be set
    // to the @link(TDataArray) that was exported and it will be the caller's
    // responsibility to free TransientArray
    procedure WriteTransient2DArray(const Comment: string;
      DataTypeIndex: Integer; DataType: TRbwDataType; DefaultValue: Double;
      List: TList; AssignmentMethod: TUpdateMethod; AdjustForLGR: boolean;
      var TransientArray: TDataArray; const MF6_ArrayName: string;
      FreeArray: boolean = True);
    procedure WriteMf6_DataSet(DataArray: TDataArray; const ID: string);
    procedure WriteSaveFlowsOption;
    procedure WritePrintFlowsOption;
    procedure WriteBeginOptions;
    procedure WriteEndOptions;
    procedure PrintListInputOption;
    function ShouldCheckCell(LayerIndex, RowIndex, ColIndex: Integer): Boolean; virtual;
  public
    // @name converts AFileName to use the correct extension for the file.
//    class function FileName(const AFileName: string): string;

    // @name converts a real number represented as a string to always use
    property ArrayWritingFormat: TArrayWritingFormat read FArrayWritingFormat;
    {@name checks that the values stored in DataArray are valid.
    @name returns @true if no error is found.
    @param(DataArray is the @link(TDataArray) to be checked.)
    @param(LayerIndex is the layer (first index) in DataArray to be checked.)
    @param(ErrorOrWarningMessage is the message to be displayed to the
      user if the check fails.)
    @param(CheckMethod indicates how the data in DataArray will be checked.)
    @param(CheckValue is the value against which the data in DataArray
      will be checked.)
    @param(ErrorType indicates whether problems discovered in @name should be
      considered errors or warnings.)
    }
    function CheckArray(const DataArray: TDataArray; const LayerIndex: integer;
      const ErrorOrWarningMessage: string; CheckMethod: TCheckValueMethod;
      CheckValue: double; ErrorType: TErrorType): boolean;
    // @name creates and instance of @classname.
    // @param(Model is the @link(TCustomModel) to be exported.)
    Constructor Create(AModel: TCustomModel; EvaluationType: TEvaluationType); override;
    { @name writes one layer of DataArray to the output file.
      @param(DataArray is the TDataArray to be written.)
      @param(LayerIndex is the layer in DataArray to be written.)
      @param(ArrayName is written as a comment
        identifying the data set being written.)
    }
    procedure WriteArray(const DataArray: TDataArray; const LayerIndex: integer;
      const Comment: string;  NoValueAssignedAnnotation: string; const MF6_Arrayname: string;
      CacheArray: Boolean = True);
    // @name writes value to the output file using the U2DINT format in MODFLOW
    // or the IARRAY array reader in MT3DMS depending on the value of
    // @link(FArrayWritingFormat)
    // for cases when the array is a constant.
    procedure WriteConstantU2DINT(const Comment: string;
      const Value: integer; ArrayType: TModflowArrayType;
      const MF6_ArrayName: string); virtual;
    // @name writes value to the output file using the U2DREL format in MODFLOW
    // or the RARRAY array reader in MT3DMS depending on the value of
    // @link(FArrayWritingFormat)
    // for cases when the array is a constant.
    procedure WriteConstantU2DREL(const Comment: string;
      const Value: double; ArrayType: TModflowArrayType;
      const MF6_ArrayName: string); virtual;
    // @name writes DataArray in cross section format.
    procedure WriteCrossSectionArray(const DataArray: TDataArray;
      const Comment: string; const MF6_ArrayName: string);
    // @name writes the IFACE parameter in MODFLOW.
    procedure WriteIface(const Value: TIface);
    // @name writes the header for the U2DINT array reader in MODFLOW
    // or the IARRAY array reader in MT3DMS depending on the value of
    // @link(FArrayWritingFormat).
    // @param(Comment is used to identify the array being written.)
    Procedure WriteU2DINTHeader(const Comment: string;
      ArrayType: TModflowArrayType; const MF6_ArrayName: string); virtual;
    // @name writes the header for the U2DINT array reader in MODFLOW
    // or the RARRAY array reader in MT3DMS depending on the value of
    // @link(FArrayWritingFormat).
    // @param(Comment is used to identify the array being written.)
    Procedure WriteU2DRELHeader(const Comment: string;
      ArrayType: TModflowArrayType; const MF6_ArrayName: string); virtual;
    // @name writes a line to the name file.
    class procedure WriteToNameFile(const Ftype: string;
      const UnitNumber: integer; FileName: string;
      const Option: TFileOption; AModel: TCustomModel;
      RelativeFileName: boolean = False); overload;
    class procedure WriteToNameFile(const Ftype: string;
      UnitNumber: integer; FileName: string;
      const Option: TFileOption; OutputSuppression: TOutputSuppression;
      AModel: TCustomModel;
      RelativeFileName: boolean = False); overload;
    class procedure WriteToMt3dMsNameFile(const Ftype: string;
      const UnitNumber: integer; FileName: string; Option: TFileOption;
      AModel: TCustomModel; RelativeFileName: boolean = False);
    // @name adds a comment line to the name file.
    class procedure AddNameFileComment(const Comment: string);
  end;

  // @name is an abstract base class used to generate input for
  // MODFLOW for a specific package.
  TCustomPackageWriter = class(TCustomModflowWriter)
  private
    FWarningRoot: string;
  protected
    procedure SetTimeListsUpToDate(TimeLists: TModflowBoundListOfTimeLists);
    // @name identifies the package that is being exported.
    function Package: TModflowPackageSelection; virtual; abstract;
    // @name writes the comments for the current package.
    // @name also writes a comment identifying the package.
    procedure WriteDataSet0;
    // @name prepares the lists in TimeLists for display when the
    // lists in question are not used.
    procedure UpdateNotUsedDisplay(TimeLists: TModflowBoundListOfTimeLists);
    // @name updates the @link(TDataArray)s in DataArrayList
    // using the cells @link(TValueCellList CellList).
    // @param(ParameterIndicies indicates which properties of the cells are
    // affected by MODFLOW parameters.)
    // @param(Param is a MODFLOW parameter that might affect the value of
    // some cells.)
    // @Seealso(TCustomTransientWriter.UpdateTransient2DArray)
    procedure UpdateCellDisplay(CellList: TValueCellList; DataArrayList: TList;
      ParameterIndicies: TByteSet; Param: TModflowTransientListParameter = nil;
      UsedIndicies: TByteSet = []);
    // @name adds spaces to Source until the result is at least as long
    // as ALength.
    function ExpandString(Source: string; ALength: integer): string;
    // @name is used to define parameter clusters for Param.
    //
    // When @name is called, Param must be a parameter for which the clusters
    // need to be identified and LayerCount must be greater than or equal
    // to the maximum number of clusters that could be defined for the
    // parameter.
    //
    // After @name is called:
    // NCLU will be equal to the number of layer
    // clusters needed to be associated with Param.
    //
    // Clusters will be an
    // array with length equal to the LayerCount.  The first NCLU
    // items in Clusters will be the MODFLOW layers for which a cluster
    // will need to be defined.
    //
    // UniformLayers will be an
    // array with length equal to the LayerCount.  The first NCLU
    // items in UniformLayers will indicate whether or not the cluster
    // associated with that layer will be uniform.
    //
    // The remaining items in Clusters and UniformLayers are undefined.
    procedure IdentifyZoneClusters(var NCLU: Integer;
      var Clusters: TOneDIntegerArray; var UniformLayers: TBooleanDynArray;
      LayerCount: Integer; Param: TModflowSteadyParameter);
    Function UcodeObsNameOK(Const AName: string): boolean;
    procedure CheckCell(ValueCell: TValueCell;
      const PackageName: string); virtual;
    procedure RemoveNoDefinedError(var NoDefinedErrorRoot: string); virtual;
    procedure ShowNoBoundaryError(const NoDefinedErrorRoot: string); virtual;
    function AquiferConductance(Layer, Row, Column: Integer): double;
    function AquiferKx(Layer, Row, Column: Integer): double;
  public
    destructor Destroy; override;
  end;

  TCustomSolverWriter = class(TCustomPackageWriter)
  protected
    function SolverFileGeneratedExternally: boolean;
  end;

  TCustomFlowPackageWriter = class(TCustomPackageWriter)
  protected
    function FlowPackageFileGeneratedExternally: boolean;
  end;

  // @name is used to export input files for MODFLOW for packages with
  // time-varying data.
  TCustomTransientWriter = class(TCustomPackageWriter)
  private
    // After @link(Evaluate) is called,
    // @name contains a series of @link(TValueCellList)s;
    // one for each stress period.
    // Each such list contains series of @link(TValueCell)s. Each
    // @link(TValueCell) defines one boundary cell for one stress period.
    // @name is a TObjectList.
    FValues: TList;
    function GetOwnsValueContents: Boolean;
    procedure SetOwnsValueContents(const Value: Boolean);
  protected
    // @name reads the data from the model and processes it into a form
    // where it can be readily exported to the MODFLOW input file.
    procedure Evaluate; virtual; abstract;
    // @name stores the values at a list of cells.
    property Values: TList read FValues;
    property OwnsValueContents: Boolean read GetOwnsValueContents
      write SetOwnsValueContents;

    {@name updates @link(TModflowBoundaryDisplayDataArray DisplayArray)
    with the contents of List.
    List can either contain @link(TDataArray)s,
    lists of @link(TDataArray)s, or lists of lists of @link(TDataArray)s.
    @Seealso(UpdateCellDisplay)}
    procedure UpdateTransient2DArray(
      DisplayArray: TModflowBoundaryDisplayDataArray; List: TList);

    {@name
    @unorderedList(
      @item(assigns DefaultValue to every location in
      @link(TModflowBoundaryDisplayDataArray DisplayArray),)
      @item(assigns @link(StrNoValueAssigned) to the corresponding annotation,)
      @item(assigns @link(TModflowBoundaryDisplayDataArray.CellCount)
        a value of zero.)
    )}
    procedure InitializeDisplayArray(
      DisplayArray: TModflowBoundaryDisplayDataArray; DefaultValue: Double);

    {@name uses the contents of  List to assign values to
    @link(TModflowBoundaryDisplayDataArray DisplayArray).
     @param(List can either contain @link(TValueCellList)s or
     lists of @link(TValueCellList)s.)
     DefaultValue is the value to be assigned if no member of List has
     a value.
     @param(DataType indicates whether @link(TValueCell.IntegerValue)
     or @link(TValueCell.RealValue) should be accessed.)
     @param(DataTypeIndex indicates which @link(TValueCell.IntegerValue)
     or @link(TValueCell.RealValue) should be accessed.)
     @param(UpdateMethod indicates whether successive values from @link(TValueCell)
     should replace or be added to existing values.)}
    procedure AssignTransient2DArray(
      DisplayArray: TModflowBoundaryDisplayDataArray; DataTypeIndex: Integer;
      List: TList; DefaultValue: double; DataType: TRbwDataType;
      UpdateMethod: TUpdateMethod);
    // @name counts the maximum number of cells used in any stress period. This
    // value is returned in MaximumNumberOfCells.
    procedure CountCells(var MaximumNumberOfCells: integer); virtual;
    procedure GetITMP(var ITMP: integer; TimeIndex: integer;
      var List: TValueCellList); virtual;
    procedure WriteDimensionsMF6;
  public
    // @name creates and instance of @classname.
    Constructor Create(Model: TCustomModel; EvaluationType: TEvaluationType); override;
    // @name destroys the current instance of @classname.
    Destructor Destroy; override;
  end;

  TCustomParameterTransientWriter = class(TCustomTransientWriter)
  private
  protected
    FParameterNames: TStringList;
    // @name is used to maintain a list of parameter instance names so that
    // duplicate instance names are not generated. @name is filled once
    // when exporting the parameters and again when exporting the
    // stress periods.  Thus it must be cleared at the beginning of the process
    // of exporting the stress periods.
    FUsedInstanceNames: TStringList;
    // See @link(ParamValues).
    FParamValues: TStringList;
    function BoundariesPresent: boolean; virtual;
    // @name is used to create a @link(TValueCellList) for a particular type
    // of @link(TValueCell).
    function CellType: TValueCellType; virtual; abstract;
    // @name returns the number of cells defined by parameters and the number
    // of parameters instances for the parameter.
    procedure GetNumCellsAndNumInstances(ParamValues: TList;
      var NUMINST, NLST: Integer);
    // @name is an abstract function used to return the proper
    // @link(TModflowBoundary) for the package that is being exported.
    function GetBoundary(ScreenObject: TScreenObject): TModflowBoundary;
      virtual; abstract;
    // @name writes the non-parameter cells and the names of the parameter
    // instance for each stress period.
    // @param(DataSetIdentifier DataSetIdentifier is passed to
    //   @link(TCustomListWriter.WriteCell).)
    // @param(VariableIdentifiers VariableIdentifiers is passed to
    //   @link(TCustomListWriter.WriteCell).)
    procedure WriteStressPeriods(const VariableIdentifiers, DataSetIdentifier,
      DS5, D7PNameIname, D7PName: string); virtual; abstract;
    // @name returns the proper name for an instance of a parameter in
    // InstanceName. InstanceRoot should have been obtained from
    // @link(GetInstanceRoot). @name needs to return the same value of the
    // instance name for each unique combination of TimeIndex and InstanceRoot;
    procedure GetInstanceName(var InstanceName: string; TimeIndex: Integer;
      InstanceRoot: string);
    // @name uses PARNAM to determine InstanceRoot which is then used in
    // @link(GetInstanceName). InstanceRoot will be short enough that
    // the name of the parameter instance will always be less than or equal
    // to 10 characters.
    procedure GetInstanceRoot(const PARNAM: string; ParamValues: TList;
      var InstanceRoot: string);
    // @name determines the appropriate value or values to assign to each cell
    // for each stress period.
    procedure Evaluate; override;
    // @name adds lines to ParametersUsed that specify the parameters
    // that are used in the current stress period.
    // @name fills ParameterValues with lists of @link(TValueCellList)s.
    procedure RetrieveParametersForStressPeriod(const D7PNameIname,
      D7PName: string; TimeIndex: Integer; ParametersUsed: TStringList;
      ParameterValues: TList; IncludePrintCode: boolean);
    // @name is the number of parameters used by the package.
    function ParameterCount: integer; virtual;
    // @name is an abstract method that returns the package being exported.
    function ParameterType: TParameterType; virtual; abstract;
    // @name is an abstract method used to write the cells for a parameter.
    // If CellList.Count < NLST, dummy, inactive cells should be written so
    // that all instances of the parameter have the same number of cells.
    // @param(CellList CellList contains a list of @link(TValueCell)s to be
    //   exported.)
    // @param(NLST NLST is the required number of cells in each parameter
    //   instance.)
    // @param(DataSetIdentifier DataSetIdentifier is passed to
    //   @link(TCustomListWriter.WriteCell).)
    // @param(VariableIdentifiers VariableIdentifiers is passed to
    //   @link(TCustomListWriter.WriteCell).)
    procedure WriteParameterCells(CellList: TValueCellList; NLST: Integer;
      const VariableIdentifiers, DataSetIdentifier: string;
      AssignmentMethod: TUpdateMethod;
      MultiplierArrayNames: TTransientMultCollection;
      ZoneArrayNames: TTransientZoneCollection); virtual; abstract;
    // @name writes the definitions of parameters including the lists of cells.
    // @param(DS3 DS3 identifies the data set containing
    //   PARNAM PARTYP Parval NLST  and those variable names.)
    // @param(DS3Instances DS3Instances identifies the variables
    //    associated with parameters instances.)
    // @param(DS4A DS4A identifies the data set containing INSTNAM. when
    //   parameter instances are being defined.)
    // @param(DataSetIdentifier DataSetIdentifier is passed to
    //   @link(TCustomListWriter.WriteCell).)
    // @param(VariableIdentifiers VariableIdentifiers is passed to
    //   @link(TCustomListWriter.WriteCell).)
    // @param(ErrorRoot ErrorRoot is used in a format statement to create
    //   an error message when a parameter has no associated cells.
    //   It should have %s in it somewhere which will be filled in with the
    //   type of parameter being exported.)
    // @param(ParameterType ParameterType is the type of parameter associated
    //   with the package being exported.)
    procedure WriteParameterDefinitions(const DS3, DS3Instances, DS4A,
      DataSetIdentifier, VariableIdentifiers, ErrorRoot: string;
      AssignmentMethod: TUpdateMethod;
      MultiplierArrayNames: TTransientMultCollection;
      ZoneArrayNames: TTransientZoneCollection); virtual; abstract;
    { TODO -cRefactor : Consider replacing Model with an interface. }
    //
    procedure ClearTimeLists(AModel: TBaseModel);
  public
    // @name creates and instance of @classname.
    Constructor Create(Model: TCustomModel; EvaluationType: TEvaluationType); override;
    Destructor Destroy; override;
    // After @link(Evaluate) is called,
    // @name contains a series of parameter names.  Associated with each
    // parameter name in the Objects property is a TList.  Each TList
    // contains a series of @link(TValueCellList)s; one for each stress period.
    // Each such list contains series of @link(TValueCell)s. Each
    // @link(TValueCell) defines one boundary cell for one stress period.
    property ParamValues: TStringList read FParamValues;
  end;

  {@name is used as a base class for writing typical boundary condition
   files that allow for both parameter and non-parameter cells.}
  TCustomListWriter = class(TCustomParameterTransientWriter)
  private
    FBoundNames: TStringList;
    FObjectNames: TStringList;
    procedure WriteMF6_ListParm(DataSetIdentifier, VariableIdentifiers,
      ErrorRoot: string; const TimeIndex: integer);
  protected

    // @name counts the maximum number of cells used in any stress period. This
    // value is returned in MaximumNumberOfCells.
    procedure CountCells(var MaximumNumberOfCells: Integer); override;
    // @name counts the number of parameters and the maximum number of cells
    // defined by parameters. If a parameter has no cells associated with it,
    // its name will be erased from FParamValues which will cause a warning
    // message to be displayed later on.
    // @seealso(ParameterCount)
    procedure CountParametersAndParameterCells(
      var ParamCount, ParamCellCount: integer);
    // @name returns the 'Option" used in many packages for suppressing
    // the printing of lists of cells.
    procedure GetOption(var Option: string); virtual;
    // @name is an abstract method for writes a cell.
    // @param(DataSetIdentifier DataSetIdentifier identifies the data set
    // that is being exported.)
    // @param(VariableIdentifiers VariableIdentifiers identifies the variables
    // being exported when the names of some variables vary.)
    procedure WriteCell(Cell: TValueCell;
      const DataSetIdentifier, VariableIdentifiers: string); virtual; abstract;
    // @name writes the definitions of parameters including the lists of cells.
    // @param(DS3 DS3 identifies the data set containing
    //   PARNAM PARTYP Parval NLST  and those variable names.)
    // @param(DS3Instances DS3Instances identifies the variables
    //    associated with parameters instances.)
    // @param(DS4A DS4A identifies the data set containing INSTNAM. when
    //   parameter instances are being defined.)
    // @param(DataSetIdentifier DataSetIdentifier is passed to
    //   @link(WriteCell).)
    // @param(VariableIdentifiers VariableIdentifiers is passed to
    //   @link(WriteCell).)
    // @param(ErrorRoot ErrorRoot is used in a format statement to create
    //   an error message when a parameter has no associated cells.
    //   It should have %s in it somewhere which will be filled in with the
    //   type of parameter being exported.)
    // @param(ParameterType ParameterType is the type of parameter associated
    //   with the package being exported.)
    procedure WriteParameterDefinitions(const DS3, DS3Instances, DS4A,
      DataSetIdentifier, VariableIdentifiers, ErrorRoot: string;
      AssignmentMethod: TUpdateMethod;
      MultiplierArrayNames: TTransientMultCollection;
      ZoneArrayNames: TTransientZoneCollection); override;
    // @name writes the non-parameter cells and the names of the parameter
    // instance for each stress period.
    // @param(DataSetIdentifier DataSetIdentifier is passed to
    //   @link(WriteCell).)
    // @param(VariableIdentifiers VariableIdentifiers is passed to
    //   @link(WriteCell).)
    procedure WriteStressPeriods(const VariableIdentifiers, DataSetIdentifier,
      DS5, D7PNameIname, D7PName: string); override;
    // Check that the cell is in an active cell.

    // @name can be overridden to write additional information for
    // a stress period.
    procedure WriteCustomStressPeriod(TimeIndex: Integer); virtual;
    procedure DoBeforeWriteCells; virtual;
    procedure DoBeforeWriteParamCells; virtual;
    procedure WriteListOptions; virtual;
    procedure WriteOptionsMF6;
    procedure WriteBoundName(ACell: TValueCell);
    procedure WriteAndCheckCells(const VariableIdentifiers: string;
      const DataSetIdentifier: string; List: TValueCellList; TimeIndex: integer); virtual;
  public
    // @name is used to update the display of transient data used to color the
    // grid.
    // @param(TimeLists TimeLists is a list of
    //   @link(TModflowBoundaryDisplayTimeList)s that are to be updated.
    //   The order of the @link(TModflowBoundaryDisplayTimeList)s in TimeLists