object frmModflowPackages: TfrmModflowPackages
  Left = 0
  Top = 0
  HelpType = htKeyword
  HelpKeyword = 'MODFLOW_Packages_Dialog_Box'
  Caption = 'MODFLOW Packages and Programs'
  ClientHeight = 555
  ClientWidth = 782
  Color = clBtnFace
  Font.Charset = DEFAULT_CHARSET
  Font.Color = clWindowText
  Font.Height = -13
  Font.Name = 'Tahoma'
  Font.Style = []
  OldCreateOrder = True
  OnResize = FormResize
  PixelsPerInch = 120
  TextHeight = 16
  object JvNetscapeSplitter1: TJvNetscapeSplitter
    Left = 177
    Top = 0
    Height = 514
    Align = alLeft
    MinSize = 1
    Maximized = False
    Minimized = False
    ButtonCursor = crDefault
    ExplicitLeft = 121
    ExplicitTop = -14
    ExplicitHeight = 252
  end
  object jvplPackages: TJvPageList
    Left = 187
    Top = 0
    Width = 595
    Height = 514
    ActivePage = jvspCHD
    PropagateEnable = False
    Align = alClient
    OnChange = jvplPackagesChange
    object jvspLPF: TJvStandardPage
      Left = 0
      Top = 0
      Width = 595
      Height = 514
      HelpType = htKeyword
      HelpKeyword = 'LPF_Layer_Property_Flow_Package'
      Caption = 'LPF (Layer Property Flow)'
      object splitLprParameter: TJvNetscapeSplitter
        Left = 121
        Top = 291
        Height = 223
        Align = alLeft
        MinSize = 1
        Maximized = False
        Minimized = False
        ButtonCursor = crDefault
        ExplicitLeft = 256
        ExplicitTop = 96
        ExplicitHeight = 100
      end
      object JvNetscapeSplitter3: TJvNetscapeSplitter
        Left = 0
        Top = 281
        Width = 595
        Height = 10
        Cursor = crVSplit
        Align = alTop
        MinSize = 1
        Maximized = False
        Minimized = False
        ButtonCursor = crDefault
        ExplicitLeft = -4
        ExplicitTop = 283
        ExplicitWidth = 605
      end
      inline frameLpfParameterDefinition: TframeArrayParameterDefinition
        Left = 131
        Top = 291
        Width = 464
        Height = 223
        Align = alClient
        Enabled = False
        TabOrder = 2
        TabStop = True
        ExplicitLeft = 131
        ExplicitTop = 291
        ExplicitWidth = 464
        ExplicitHeight = 223
        inherited pnlParameterCount: TPanel
          Top = 175
          Width = 464
          ExplicitTop = 175
          ExplicitWidth = 464
          inherited btnDelete: TBitBtn
            Left = 351
            Top = 9
            Enabled = True
            TabOrder = 1
            OnClick = frameParameterDefinition_btnDeleteClick
            ExplicitLeft = 351
            ExplicitTop = 9
          end
          inherited seNumberOfParameters: TJvSpinEdit
            Height = 26
            Enabled = True
            TabOrder = 0
            OnChange = frameParameterDefinition_seNumberOfParametersChange
            ExplicitHeight = 26
          end
        end
        inherited dgParameters: TRbwDataGrid4
          Width = 458
          Height = 112
          Enabled = True
          Columns = <
            item
              AutoAdjustRowHeights = False
              ButtonCaption = '...'
              ButtonFont.Charset = DEFAULT_CHARSET
              ButtonFont.Color = clWindowText
              ButtonFont.Height = -11
              ButtonFont.Name = 'Tahoma'
              ButtonFont.Style = []
              ButtonUsed = False
              ButtonWidth = 20
              CheckMax = False
              CheckMin = False
              ComboUsed = False
              Format = rcf4String
              LimitToList = False
              MaxLength = 10
              ParentButtonFont = False
              WordWrapCaptions = False
              WordWrapCells = False
              CaseSensitivePicklist = False
              CheckStyle = csCheck
              AutoAdjustColWidths = True
            end
            item
              AutoAdjustRowHeights = False
              ButtonCaption = '...'
              ButtonFont.Charset = DEFAULT_CHARSET
              ButtonFont.Color = clWindowText
              ButtonFont.Height = -11
              ButtonFont.Name = 'Tahoma'
              ButtonFont.Style = []
              ButtonUsed = False
              ButtonWidth = 20
              CheckMax = False
              CheckMin = False
              ComboUsed = False
              Format = rcf4Real
              LimitToList = False
              MaxLength = 0
              ParentButtonFont = False
              WordWrapCaptions = False
              WordWrapCells = False
              CaseSensitivePicklist = False
              CheckStyle = csCheck
              AutoAdjustColWidths = True
            end
            item
              AutoAdjustRowHeights = False
              ButtonCaption = '...'
              ButtonFont.Charset = DEFAULT_CHARSET
              ButtonFont.Color = clWindowText
              ButtonFont.Height = -11
              ButtonFont.Name = 'Tahoma'
              ButtonFont.Style = []
              ButtonUsed = False
              ButtonWidth = 20
              CheckMax = False
              CheckMin = False
              ComboUsed = False
              Format = rcf4Boolean
              LimitToList = False
              MaxLength = 0
              ParentButtonFont = False
              WordWrapCaptions = False
              WordWrapCells = False
              CaseSensitivePicklist = False
              CheckStyle = csCheck
              AutoAdjustColWidths = True
            end
            item
              AutoAdjustRowHeights = False
              ButtonCaption = '...'
              ButtonFont.Charset = DEFAULT_CHARSET
              ButtonFont.Color = clWindowText
              ButtonFont.Height = -11
              ButtonFont.Name = 'Tahoma'
              ButtonFont.Style = []
              ButtonUsed = False
              ButtonWidth = 20
              CheckMax = False
              CheckMin = False
              ComboUsed = False
              Format = rcf4Boolean
              LimitToList = False
              MaxLength = 0
              ParentButtonFont = False
              WordWrapCaptions = False
              WordWrapCells = False
              CaseSensitivePicklist = False
              CheckStyle = csCheck
              AutoAdjustColWidths = True
            end>
          ExplicitWidth = 458
          ExplicitHeight = 112
          ColWidths = (
            64
            64
            64
            64)
        end
        inherited pnlTop: TPanel
          Width = 464
          ExplicitWidth = 464
        end
      end
      object tvLpfParameterTypes: TTreeView
        Left = 0
        Top = 291
        Width = 121
        Height = 223
        Align = alLeft
        Enabled = False
        HideSelection = False
        Indent = 20
        ReadOnly = True
        TabOrder = 1
        OnChange = tvLpfParameterTypesChange
      end
      inline framePkgLPF: TframePackageLpf
        Left = 0
        Top = 0
        Width = 595
        Height = 281
        Align = alTop
        TabOrder = 0
        TabStop = True
        ExplicitWidth = 595
        ExplicitHeight = 281
        inherited memoComments: TMemo
          Width = 564
          ExplicitWidth = 564
        end
        inherited rdgOptions: TRbwDataGrid4
          Width = 567
          ExplicitWidth = 567
          RowHeights = (
            24
            24
            24
            24
            24
            24)
        end
        inherited rcSelectionController: TRbwController
          ControlList = <
            item
              Control = framePkgLPF.lblComments
            end
            item
              Control = framePkgLPF.memoComments
            end
            item
              Control = framePkgLPF.rdgOptions
            end>
          OnEnabledChange = framePkgLPFrcSelectionControllerEnabledChange
        end
      end
    end
    object jvspHUF: TJvStandardPage
      Left = 0
      Top = 0
      Width = 595
      Height = 514
      HelpType = htKeyword
      HelpKeyword = 'HUF2_Hydrogeologic_Unit_Flow'
      Caption = 'jvspHUF'
      object JvNetscapeSplitter4: TJvNetscapeSplitter
        Left = 0
        Top = 275
        Width = 595
        Height = 10
        Cursor = crVSplit
        Align = alTop
        MinSize = 1
        Maximized = False
        Minimized = False
        ButtonCursor = crDefault
        ExplicitTop = 204
        ExplicitWidth = 605
      end
      object JvNetscapeSplitter5: TJvNetscapeSplitter
        Left = 121
        Top = 285
        Height = 229
        Align = alLeft
        MinSize = 1
        Maximized = False
        Minimized = False
        ButtonCursor = crDefault
        ExplicitLeft = 256
        ExplicitTop = 96
        ExplicitHeight = 100
      end
      inline framePkgHuf: TframePackageHuf
        Left = 0
        Top = 0
        Width = 595
        Height = 275
        Align = alTop
        TabOrder = 0
        TabStop = True
        ExplicitWidth = 595
        DesignSize = (
          595
          275)
        inherited memoComments: TMemo
          Width = 564
          ExplicitWidth = 564
        end
        inherited cbSaveHeads: TCheckBox
          Width = 441
          ExplicitWidth = 441
        end
        inherited cbSaveFlows: TCheckBox
          Width = 417
          ExplicitWidth = 417
        end
        inherited rgElevationSurfaceChoice: TRadioGroup
          Width = 313
          ExplicitWidth = 313
        end
        inherited rcSelectionController: TRbwController
          ControlList = <
            item
              Control = framePkgHuf.lblComments
            end
            item
              Control = framePkgHuf.memoComments
            end
            item
              Control = framePkgHuf.cbSaveHeads
            end
            item
              Control = framePkgHuf.cbSaveFlows
            end
            item
              Control = frameHufParameterDefinition
            end
            item
              Control = tvHufParameterTypes
            end>
          OnEnabledChange = framePkgHufrcSelectionControllerEnabledChange
        end
      end
      object tvHufParameterTypes: TTreeView
        Left = 0
        Top = 285
        Width = 121
        Height = 229
        Align = alLeft
        Enabled = False
        HideSelection = False
        Indent = 20
        ReadOnly = True
        TabOrder = 1
        OnChange = tvHufParameterTypesChange
      end
      inline frameHufParameterDefinition: TframeListParameterDefinition
        Left = 131
        Top = 285
        Width = 464
        Height = 229
        Align = alClient
        Enabled = False
        TabOrder = 2
        TabStop = True
        ExplicitLeft = 131
        ExplicitTop = 285
        ExplicitWidth = 464
        ExplicitHeight = 229
        inherited pnlParameterCount: TPanel
          Top = 181
          Width = 464
          ExplicitTop = 181
          ExplicitWidth = 464
          inherited btnDelete: TBitBtn
            Left = 351
            Top = 9
            Enabled = True
            TabOrder = 1
            OnClick = frameParameterDefinition_btnDeleteClick
            ExplicitLeft = 351
            ExplicitTop = 9
          end
          inherited seNumberOfParameters: TJvSpinEdit
            Height = 26
            TabOrder = 0
            OnChange = frameParameterDefinition_seNumberOfParametersChange
            ExplicitHeight = 26
          end
        end
        inherited dgParameters: TRbwDataGrid4
          Width = 458
          Height = 175
          Enabled = True
          ExplicitWidth = 458
          ExplicitHeight = 175
          ColWidths = (
            64
            64)
        end
      end
    end
    object jvspCHD: TJvStandardPage
      Left = 0
      Top = 0
      Width = 595
      Height = 514
      HelpType = htKeyword
      HelpKeyword = 'CHD_Time_Variant_Specified_Head'
      Caption = 'CHD (Time-Variant Specified-Head Package)'
      inline framePkgCHD: TframePackage
        Left = 0
        Top = 0
        Width = 595
        Height = 161
        Align = alTop
        TabOrder = 0
        TabStop = True
        ExplicitWidth = 595
        inherited memoComments: TMemo
          Width = 564
          ExplicitWidth = 564
        end
        inherited rcSelectionController: TRbwController
          ControlList = <
            item
              Control = framePkgCHD.lblComments
            end
            item
              Control = framePkgCHD.memoComments
            end
            item
              Control = frameChdParameterDefinition
            end>
          Left = 120
        end
      end
      inline frameChdParameterDefinition: TframeListParameterDefinition
        Left = 0
        Top = 161
        Width = 595
        Height = 353
        Align = alClient
        Enabled = False
        TabOrder = 1
        TabStop = True
        ExplicitTop = 161
        ExplicitWidth = 595
        ExplicitHeight = 353
        inherited pnlParameterCount: TPanel
          Top = 305
          Width = 595
          ExplicitTop = 305
          ExplicitWidth = 595
          inherited btnDelete: TBitBtn
            Left = 481
            Top = 9
            TabOrder = 1
            OnClick = frameParameterDefinition_btnDeleteClick
            ExplicitLeft = 481
            ExplicitTop = 9
          end
          inherited seNumberOfParameters: TJvSpinEdit
            Height = 24
            TabOrder = 0
            OnChange = frameParameterDefinition_seNumberOfParametersChange
            ExplicitHeight = 24
          end
        end
        inherited dgParameters: TRbwDataGrid4
          Width = 589
          Height = 299
          ExplicitWidth = 589
          ExplicitHeight = 299
          ColWidths = (
            64
            64)
        end
      end
    end
    object jvspGHB: TJvStandardPage
      Left = 0
      Top = 0
      Width = 595
      Height = 514
      HelpType = htKeyword
      HelpKeyword = 'GHB_General_Head_Boundary_Package'
      Caption = 'GHB (General Head Boundary)'
      inline framePkgGHB: TframePackage
        Left = 0
        Top = 0
        Width = 595
        Height = 161
        Align = alTop
        TabOrder = 0
        TabStop = True
        ExplicitWidth = 595
        inherited memoComments: TMemo
          Width = 564
          ExplicitWidth = 564
        end
        inherited rcSelectionController: TRbwController
          ControlList = <
            item
              Control = framePkgGHB.lblComments
            end
            item
              Control = framePkgGHB.memoComments
            end
            item
              Control = frameGhbParameterDefinition
            end>
        end
      end
      inline frameGhbParameterDefinition: TframeListParameterDefinition
        Left = 0
        Top = 161
        Width = 595
        Height = 353
        Align = alClient
        Enabled = False
        TabOrder = 1
        TabStop = True
        ExplicitTop = 161
        ExplicitWidth = 595
        ExplicitHeight = 353
        inherited pnlParameterCount: TPanel
          Top = 305
          Width = 595
          ExplicitTop = 305
          ExplicitWidth = 595
          inherited btnDelete: TBitBtn
            Left = 481
            OnClick = frameParameterDefinition_btnDeleteClick
            ExplicitLeft = 481
          end
          inherited seNumberOfParameters: TJvSpinEdit
            Height = 26
            OnChange = frameParameterDefinition_seNumberOfParametersChange
            ExplicitHeight = 26
          end
        end
        inherited dgParameters: TRbwDataGrid4
          Width = 589
          Height = 299
          ExplicitWidth = 589
          ExplicitHeight = 299
          ColWidths = (
            64
            64)
        end
      end
    end
    object jvspPCG: TJvStandardPage
      Left = 0
      Top = 0
      Width = 595
      Height = 514
      HelpType = htKeyword
      HelpKeyword = 'PCG_Preconditioned_Conjugate_Gradiant'
      Caption = 'PCG (Preconditioned Conjugate-Gradient)'
      inline framePCG: TframePCG
        Left = 0
        Top = 0
        Width = 595
        Height = 514
        Align = alClient
        Anchors = [akLeft, akTop, akBottom]
        TabOrder = 0
        TabStop = True
        ExplicitWidth = 595
        ExplicitHeight = 514
        DesignSize = (
          595
          514)
        inherited lblPCGMaxOuter: TLabel
          Top = 127
          ExplicitTop = 127
        end
        inherited lblPCGMaxInner: TLabel
          Top = 155
          ExplicitTop = 155
        end
        inherited lblPCGMethod: TLabel
          Top = 183
          ExplicitTop = 183
        end
        inherited lblPCGMaxChangeHead: TLabel
          Top = 295
          ExplicitTop = 295
        end
        inherited lblPCGMaxResidual: TLabel
          Top = 323
          ExplicitTop = 323
        end
        inherited lblPCGRelaxation: TLabel
          Top = 351
          ExplicitTop = 351
        end
        inherited lblPCGMaxEigen: TLabel
          Top = 379
          ExplicitTop = 379
        end
        inherited lblPCGPrintInterval: TLabel
          Top = 406
          ExplicitTop = 406
        end
        inherited lblPCGPrintControl: TLabel
          Top = 434
          ExplicitTop = 434
        end
        inherited lblPCGDampingFactor: TLabel
          Top = 461
          ExplicitTop = 461
        end
        inherited lblPCGDampPcgT: TLabel
          Top = 489
          ExplicitTop = 489
        end
        inherited memoComments: TMemo
          Width = 574
          ExplicitWidth = 574
        end
        inherited rdePCGMaxOuter: TRbwDataEntry
          Top = 124
          Width = 242
          ExplicitTop = 124
          ExplicitWidth = 242
        end
        inherited rdePCGMaxInner: TRbwDataEntry
          Top = 152
          Width = 242
          ExplicitTop = 152
          ExplicitWidth = 242
        end
        inherited comboPCGPrecondMeth: TJvImageComboBox
          Top = 180
          Width = 242
          ExplicitTop = 180
          ExplicitWidth = 242
        end
        inherited rdePCGMaxHeadChange: TRbwDataEntry
          Top = 292
          Width = 242
          ExplicitTop = 292
          ExplicitWidth = 242
        end
        inherited rdePCGMaxResChange: TRbwDataEntry
          Top = 320
          Width = 242
          ExplicitTop = 320
          ExplicitWidth = 242
        end
        inherited rdePCGRelax: TRbwDataEntry
          Top = 348
          Width = 242
          ExplicitTop = 348
          ExplicitWidth = 242
        end
        inherited comboPCGEigenValue: TJvImageComboBox
          Top = 376
          Width = 242
          ExplicitTop = 376
          ExplicitWidth = 242
        end
        inherited rdePCGPrintInt: TRbwDataEntry
          Top = 403
          Width = 242
          ExplicitTop = 403
          ExplicitWidth = 242
        end
        inherited comboPCGPrint: TJvImageComboBox
          Top = 431
          Width = 242
          ExplicitTop = 431
          ExplicitWidth = 242
        end
        inherited rdePCGDamp: TRbwDataEntry
          Top = 458
          Width = 242
          ExplicitTop = 458
          ExplicitWidth = 242
        end
        inherited rdePCGDampPcgT: TRbwDataEntry
          Top = 486
          Width = 242
          ExplicitTop = 486
          ExplicitWidth = 242
        end
        inherited gbIHCOFADD: TGroupBox
          Top = 202
          Anchors = [akLeft, akBottom]
          ExplicitTop = 202
        end
        inherited rcSelectionController: TRbwController
          ControlList = <
            item
              Control = framePCG.lblComments
            end
            item
              Control = framePCG.memoComments
            end
            item
              Control = framePCG.comboPCGPrecondMeth
            end
            item
              Control = framePCG.comboPCGPrint
            end
            item
              Control = framePCG.rdePCGDamp
            end
            item
              Control = framePCG.rdePCGMaxHeadChange
            end
            item
              Control = framePCG.rdePCGMaxInner
            end
            item
              Control = framePCG.rdePCGMaxOuter
            end
            item
              Control = framePCG.rdePCGMaxResChange
            end
            item
              Control = framePCG.rdePCGPrintInt
            end
            item
              Control = framePCG.rdePCGDampPcgT
            end
            item
              Control = framePCG.rbIHCOFADD_0
            end
            item
              Control = framePCG.rbIHCOFADD_1
            end>
        end
      end
    end
    object jvspWEL: TJvStandardPage
      Left = 0
      Top = 0
      Width = 595
      Height = 514
      HelpType = htKeyword
      HelpKeyword = 'WEL_Well_Package_Pane'
      Caption = 'jvspWEL'
      inline framePkgWEL: TframePackageWell
        Left = 0
        Top = 0
        Width = 595
        Height = 241
        Align = alTop
        TabOrder = 0
        TabStop = True
        ExplicitWidth = 595
        ExplicitHeight = 241
        DesignSize = (
          595
          241)
        inherited memoComments: TMemo
          Width = 564
          Height = 124
          ExplicitWidth = 564
          ExplicitHeight = 124
        end
        inherited cbTabfiles: TCheckBox
          Width = 569
          ExplicitWidth = 569
        end
        inherited rcSelectionController: TRbwController
          ControlList = <
            item
              Control = framePkgWEL.lblComments
            end
            item
              Control = framePkgWEL.memoComments
            end
            item
              Control = framePkgWEL.rdePhiRamp
            end
            item
              Control = frameWelParameterDefinition
            end
            item
              Control = framePkgWEL.cbTabfiles
            end>
          Left = 408
          Top = 96
        end
      end
      inline frameWelParameterDefinition: TframeListParameterDefinition
        Left = 0
        Top = 241
        Width = 595
        Height = 273
        Align = alClient
        Enabled = False
        TabOrder = 1
        TabStop = True
        ExplicitTop = 241
        ExplicitWidth = 595
        ExplicitHeight = 273
        inherited pnlParameterCount: TPanel
          Top = 225
          Width = 595
          ExplicitTop = 225
          ExplicitWidth = 595
          inherited btnDelete: TBitBtn
            Left = 481
            OnClick = frameParameterDefinition_btnDeleteClick
            ExplicitLeft = 481
          end
          inherited seNumberOfParameters: TJvSpinEdit
            Height = 26
            OnChange = frameParameterDefinition_seNumberOfParametersChange
            ExplicitHeight = 26
          end
        end
        inherited dgParameters: TRbwDataGrid4
          Width = 589
          Height = 219
          ExplicitWidth = 589
          ExplicitHeight = 219
          ColWidths = (
            64
            64)
        end
      end
    end
    object jvspRIV: TJvStandardPage
      Left = 0
      Top = 0
      Width = 595
      Height = 514
      HelpType = htKeyword
      HelpKeyword = 'RIV_River_Package'
      Caption = 'jvspRIV'
      inline framePkgRIV: TframePackage
        Left = 0
        Top = 0
        Width = 595
        Height = 161
        Align = alTop
        TabOrder = 0
        TabStop = True
        ExplicitWidth = 595
        inherited memoComments: TMemo
          Width = 564
          ExplicitWidth = 564
        end
        inherited rcSelectionController: TRbwController
          ControlList = <
            item
              Control = framePkgRIV.lblComments
            end
            item
              Control = framePkgRIV.memoComments
            end
            item
              Control = frameRivParameterDefinition
            end>
        end
      end
      inline frameRivParameterDefinition: TframeListParameterDefinition
        Left = 0
        Top = 161
        Width = 595
        Height = 353
        Align = alClient
        Enabled = False
        TabOrder = 1
        TabStop = True
        ExplicitTop = 161
        ExplicitWidth = 595
        ExplicitHeight = 353
        inherited pnlParameterCount: TPanel
          Top = 305
          Width = 595
          ExplicitTop = 305
          ExplicitWidth = 595
          inherited btnDelete: TBitBtn
            Left = 481
            OnClick = frameParameterDefinition_btnDeleteClick
            ExplicitLeft = 481
          end
          inherited seNumberOfParameters: TJvSpinEdit
            Height = 26
            OnChange = frameParameterDefinition_seNumberOfParametersChange
            ExplicitHeight = 26
          end
        end
        inherited dgParameters: TRbwDataGrid4
          Width = 589
          Height = 299
          ExplicitWidth = 589
          ExplicitHeight = 299
          ColWidths = (
            64
            64)
        end
      end
    end
    object jvspDRN: TJvStandardPage
      Left = 0
      Top = 0
      Width = 595
      Height = 514
      HelpType = htKeyword
      HelpKeyword = 'DRN_Drain_Package_Pane'
      Caption = 'jvspDRN'
      inline framePkgDRN: TframePackage
        Left = 0
        Top = 0
        Width = 595
        Height = 161
        Align = alTop
        TabOrder = 0
        TabStop = True
        ExplicitWidth = 595
        inherited memoComments: TMemo
          Width = 564
          ExplicitWidth = 564
        end
        inherited rcSelectionController: TRbwController
          ControlList = <
            item
              Control = framePkgDRN.lblComments
            end
            item
              Control = framePkgDRN.memoComments
            end
            item
              Control = frameDrnParameterDefinition
            end>
        end
      end
      inline frameDrnParameterDefinition: TframeListParameterDefinition
        Left = 0
        Top = 161
        Width = 595
        Height = 353
        Align = alClient
        Enabled = False
        TabOrder = 1
        TabStop = True
        ExplicitTop = 161
        ExplicitWidth = 595
        ExplicitHeight = 353
        inherited pnlParameterCount: TPanel
          Top = 305
          Width = 595
          ExplicitTop = 305
          ExplicitWidth = 595
          inherited btnDelete: TBitBtn
            Left = 481
            OnClick = frameParameterDefinition_btnDeleteClick
            ExplicitLeft = 481
          end
          inherited seNumberOfParameters: TJvSpinEdit
            Height = 26
            OnChange = frameParameterDefinition_seNumberOfParametersChange
            ExplicitHeight = 26
          end
        end
        inherited dgParameters: TRbwDataGrid4
          Width = 589
          Height = 299
          ExplicitWidth = 589
          ExplicitHeight = 299
          ColWidths = (
            64
            64)
        end
      end
    end
    object jvspDRT: TJvStandardPage
      Left = 0
      Top = 0
      Width = 595
      Height = 514
      HelpType = htKeyword
      HelpKeyword = 'DRT_Drain_Return_Package_Pane'
      Caption = 'jvspDRT'
      inline framePkgDRT: TframePackage
        Left = 0
        Top = 0
        Width = 595
        Height = 161
        Align = alTop
        TabOrder = 0
        TabStop = True
        ExplicitWidth = 595
        inherited memoComments: TMemo
          Width = 564
          ExplicitWidth = 564
        end
        inherited rcSelectionController: TRbwController
          ControlList = <
            item
              Control = framePkgDRT.lblComments
            end
            item
              Control = framePkgDRT.memoComments
            end
            item
              Control = frameDrtParameterDefinition
            end>
        end
      end
      inline frameDrtParameterDefinition: TframeListParameterDefinition
        Left = 0
        Top = 161
        Width = 595
        Height = 353
        Align = alClient
        Enabled = False
        TabOrder = 1
        TabStop = True
        ExplicitTop = 161
        ExplicitWidth = 595
        ExplicitHeight = 353
        inherited pnlParameterCount: TPanel
          Top = 305
          Width = 595
          ExplicitTop = 305
          ExplicitWidth = 595
          inherited btnDelete: TBitBtn
            Left = 481
            OnClick = frameParameterDefinition_btnDeleteClick
            ExplicitLeft = 481
          end
          inherited seNumberOfParameters: TJvSpinEdit
            Height = 26
            OnChange = frameParameterDefinition_seNumberOfParametersChange
            ExplicitHeight = 26
          end
        end
        inherited dgParameters: TRbwDataGrid4
          Width = 589
          Height = 299
          ExplicitWidth = 589
          ExplicitHeight = 299
          ColWidths = (
            64
            64)
        end
      end
    end
    object jvspRCH: TJvStandardPage
      Left = 0
      Top = 0
      Width = 595
      Height = 514
      HelpType = htKeyword
      HelpKeyword = 'RCH_Recharge_Package_Pane'
      Caption = 'jvspRCH'
      inline framePkgRCH: TframePackageRCH
        Left = 0
        Top = 0
        Width = 595
        Height = 249
        Align = alTop
        TabOrder = 0
        TabStop = True
        ExplicitWidth = 595
        ExplicitHeight = 249
        inherited memoComments: TMemo
          Width = 574
          Height = 81
          ExplicitWidth = 574
          ExplicitHeight = 81
        end
        inherited pnLayerOption: TPanel
          Top = 149
          Width = 595
          ExplicitTop = 149
          ExplicitWidth = 595
          inherited lblLayerOption: TLabel
            Width = 141
            Caption = 'Recharge location option'
            ExplicitWidth = 141
          end
          inherited cbTimeVaryingLayers: TCheckBox
            Caption = 'Time varying recharge layers'
          end
          inherited rgAssignmentMethod: TRadioGroup
            Width = 574