unit ModflowPackageSelectionUnit;

interface

uses SysUtils, Classes, GoPhastTypes, OrderedCollectionUnit, DataSetUnit,
  ModpathParticleUnit, ModflowBoundaryDisplayUnit, ScreenObjectUnit,
  ModflowBoundaryUnit, Mt3dmsChemSpeciesUnit, System.Generics.Collections;

Type
  TSelectionType = (stCheckBox, stRadioButton);

  // modpath ordinals
  TCompositeBudgetFileOption = (cbfGenerateNew, cbfUseOldFile);
  TModpathOutputMode = (mopEndpoints, mopPathline, mopTimeSeries);
  TTimeMethod = (tmIntervals, tmIndividual);
  TTrackingDirection = (tdForward, tdBackward);
  TWeakSink = (wsPassThrough, wsStop, wsThreshold);
  TEndpointWrite = (ewAll, ewInStoppingZone);
  TTimeSeriesMethod = (tsmUniform, tsmIndividual);
  TStopOption = (soModelEnd, soExtend, soTrackingTime);
  TBudgetChecking = (bcNone, bcSummary, bcList, bcTrace);
  TRetardationOption = (roNone, roUsed);
  TAdvectiveObservations = (aoNone, aoAll, aoLast);
  TMpathVersion = (mp5, mp6);

  TModflowPackageSelection = class(TPersistent)
  private
    FComments: TStrings;
    { TODO -cRefactor : Consider replacing FModel with a TNotifyEvent or interface. }
    // (FModel as TCustomModel).DischargeRoutingUpdate;
    // (FModel as TCustomModel).AddTimeList(TimeList);
    // (FModel as TCustomModel).RemoveTimeList(TimeList);
    // (FModel as TCustomModel).UpdateDisplayUseList
    // (FModel as TCustomModel).rpThreeDFormulaCompiler;
    FModel: TBaseModel;
    FPackageIdentifier: string;
    FClassification: string;
    FFrame: pointer;
    FNode: pointer;
    FSelectionType: TSelectionType;
    FAlternateNode: pointer;
    FAlternativeClassification: string;
    FOnSelectionChange: TNotifyEvent;
    procedure InvalidateModel;
    procedure SetComments(const Value: TStrings);
    procedure SetOnSelectionChange(const Value: TNotifyEvent);
  protected
    FIsSelected: boolean;
    procedure SetIsSelected(const Value: boolean); virtual;
    procedure DischargeRoutingUpdate;
    function PackageUsed(Sender: TObject): boolean;
    procedure AddTimeList(TimeList: TCustomTimeList);
    procedure RemoveTimeList(TimeList: TCustomTimeList);
    // @name is used when determining what data sets or global variables are
    // used when evaluating the formula for a MODFLOW boundary condition.
    procedure UpdateDisplayUseList(NewUseList: TStringList;
      ParamType: TParameterType; DataIndex: integer; const DisplayName: string);
    procedure UpdateUseList(DataIndex: integer; NewUseList: TStringList;
      Item: TCustomModflowBoundaryItem);
    procedure OnValueChanged(Sender: TObject);
    procedure SetIntegerProperty(var Field: integer; const Value: integer);
    procedure SetBooleanProperty(var Field: boolean; const Value: boolean);
    procedure SetRealProperty(var Field: real; const Value: real);
    procedure SetStringProperty(var Field: string; const Value: string);
  public
    procedure Assign(Source: TPersistent); override;
    { TODO -cRefactor : Consider replacing Model with a TNotifyEvent or interface. }
    //
    Constructor Create(Model: TBaseModel);
    Destructor Destroy; override;
    // @name is a string used to label items related to the package.
    // For example, in @link(TfrmShowHideObjects), @name is used to
    // label the objects that set the boundary conditions for a
    // particular package.
    property PackageIdentifier: string read FPackageIdentifier
      write FPackageIdentifier;
    // @name is used to set up a hierarchical arrangement of
    // @link(PackageIdentifier)s.
    property Classification: string read FClassification write FClassification;
    property AlternativeClassification: string read FAlternativeClassification
      write FAlternativeClassification;
    // @name is used in @link(TfrmModflowPackages) to associate a particular
    // package with a particular TFrame.
    property Frame: pointer read FFrame write FFrame;
    // @name is used in @link(TfrmModflowPackages) to display or change
    // @link(IsSelected).
    property Node: pointer read FNode write FNode;
    property AlternateNode: pointer read FAlternateNode write FAlternateNode;
    property SelectionType: TSelectionType read FSelectionType
      write FSelectionType;
    procedure InvalidateAllTimeLists; virtual;
    procedure InitializeVariables; virtual;
    property OnSelectionChange: TNotifyEvent read FOnSelectionChange write SetOnSelectionChange;
  published
    property IsSelected: boolean read FIsSelected write SetIsSelected;
    property Comments: TStrings read FComments write SetComments;
  end;

  TPackageClass = class of TModflowPackageSelection;

  TWellPackage = class(TModflowPackageSelection)
  private
    FMfWellPumpage: TModflowBoundaryDisplayTimeList;
    FPublishedPhiRamp: TRealStorage;
//    FStoredLossFactor: TRealStorage;
//    FLossFactorOption: boolean;
    FUseTabFiles: boolean;
    procedure InvalidateMfWellPumpage(Sender: TObject);
    procedure InitializeMfWellPumpage(Sender: TObject);
    procedure GetMfWellUseList(Sender: TObject; NewUseList: TStringList);
    function GetPhiRamp: Double;
    procedure SetPhiRamp(const Value: Double);

    procedure SetPublishedPhiRamp(const Value: TRealStorage);
//    procedure SetStoredLossFactor(const Value: TRealStorage);
//    procedure SetLossFactorOption(const Value: boolean);
//    function GetLossFactor: double;
//    procedure SetLossFactor(const Value: double);
    procedure SetUseTabFiles(const Value: boolean);
  public
    procedure Assign(Source: TPersistent); override;
    { TODO -cRefactor : Consider replacing Model with an interface. }
    //
    Constructor Create(Model: TBaseModel);
    Destructor Destroy; override;
    property MfWellPumpage: TModflowBoundaryDisplayTimeList
      read FMfWellPumpage;
    procedure InvalidateAllTimeLists; override;
    procedure InitializeVariables; override;
    property PhiRamp: Double read GetPhiRamp write SetPhiRamp;
//    property LossFactor: double read GetLossFactor write SetLossFactor;
    function UseTabFilesInThisModel: boolean;
  published
    property PublishedPhiRamp: TRealStorage read FPublishedPhiRamp
      write SetPublishedPhiRamp;
    // LOSSFACTOR
//    property LossFactorOption: boolean read FLossFactorOption
//      write SetLossFactorOption;
    // factor
//    property StoredLossFactor: TRealStorage read FStoredLossFactor
//      write SetStoredLossFactor;
    // TABFILES
    property UseTabFiles: boolean read FUseTabFiles write SetUseTabFiles;
  end;

  TGhbPackage = class(TModflowPackageSelection)
  private
    FMfGhbConductance: TModflowBoundaryDisplayTimeList;
    FMfGhbBoundaryHead: TModflowBoundaryDisplayTimeList;
    procedure GetMfGhbConductanceUseList(Sender: TObject;
      NewUseList: TStringList);
    procedure GetMfGhbBoundaryHeadUseList(Sender: TObject;
      NewUseList: TStringList);
    procedure InitializeGhbDisplay(Sender: TObject);
  public
    { TODO -cRefactor : Consider replacing Model with an interface. }
    //
    Constructor Create(Model: TBaseModel);
    Destructor Destroy; override;
    property MfGhbConductance: TModflowBoundaryDisplayTimeList
      read FMfGhbConductance;
    property MfGhbBoundaryHead: TModflowBoundaryDisplayTimeList
      read FMfGhbBoundaryHead;
    procedure InvalidateAllTimeLists; override;
  end;

  TDrnPackage = class(TModflowPackageSelection)
  private
    FMfDrnElevation: TModflowBoundaryDisplayTimeList;
    FMfDrnConductance: TModflowBoundaryDisplayTimeList;
    procedure InitializeDrnDisplay(Sender: TObject);
    procedure GetMfDrnConductanceUseList(Sender: TObject;
      NewUseList: TStringList);
    procedure GetMfDrnElevationUseList(Sender: TObject;
      NewUseList: TStringList);
  public
    { TODO -cRefactor : Consider replacing Model with an interface. }
    //
    Constructor Create(Model: TBaseModel);
    Destructor Destroy; override;
    property MfDrnConductance: TModflowBoundaryDisplayTimeList
      read FMfDrnConductance;
    property MfDrnElevation: TModflowBoundaryDisplayTimeList
      read FMfDrnElevation;
    procedure InvalidateAllTimeLists; override;
  end;

  TDrtPackage = class(TModflowPackageSelection)
  private
    FMfDrtReturnFraction: TModflowBoundaryDisplayTimeList;
    FMfDrtConductance: TModflowBoundaryDisplayTimeList;
    FMfDrtElevation: TModflowBoundaryDisplayTimeList;
    procedure InitializeDrtDisplay(Sender: TObject);
    procedure GetMfDrtConductanceUseList(Sender: TObject;
      NewUseList: TStringList);
    procedure GetMfDrtElevationUseList(Sender: TObject;
      NewUseList: TStringList);
    procedure GetMfDrtReturnFractionUseList(Sender: TObject;
      NewUseList: TStringList);
  public
    { TODO -cRefactor : Consider replacing Model with an interface. }
    //
    Constructor Create(Model: TBaseModel);
    Destructor Destroy; override;
    property MfDrtConductance: TModflowBoundaryDisplayTimeList
      read FMfDrtConductance;
    property MfDrtElevation: TModflowBoundaryDisplayTimeList
      read FMfDrtElevation;
    property MfDrtReturnFraction: TModflowBoundaryDisplayTimeList
      read FMfDrtReturnFraction;
    procedure InvalidateAllTimeLists; override;
  end;

  TRivPackage = class(TModflowPackageSelection)
  private
    FMfRivConductance: TModflowBoundaryDisplayTimeList;
    FMfRivBottom: TModflowBoundaryDisplayTimeList;
    FMfRivStage: TModflowBoundaryDisplayTimeList;
    procedure InitializeRivDisplay(Sender: TObject);
    procedure GetMfRivConductanceUseList(Sender: TObject;
      NewUseList: TStringList);
    procedure GetMfRivStageUseList(Sender: TObject; NewUseList: TStringList);
    procedure GetMfRivBottomUseList(Sender: TObject; NewUseList: TStringList);
  public
    { TODO -cRefactor : Consider replacing Model with an interface. }
    //
    Constructor Create(Model: TBaseModel);
    Destructor Destroy; override;
    property MfRivConductance: TModflowBoundaryDisplayTimeList
      read FMfRivConductance;
    property MfRivStage: TModflowBoundaryDisplayTimeList read FMfRivStage;
    property MfRivBottom: TModflowBoundaryDisplayTimeList read FMfRivBottom;
    procedure InvalidateAllTimeLists; override;
  end;

  TChdPackage = class(TModflowPackageSelection)
  private
    FMfChdStartingHead: TModflowBoundaryDisplayTimeList;
    FMfChdEndingHead: TModflowBoundaryDisplayTimeList;
    procedure InitializeChdDisplay(Sender: TObject);
    procedure GetMfChdStartingHeadUseList(Sender: TObject;
      NewUseList: TStringList);
    procedure GetMfChdEndingHeadUseList(Sender: TObject;
      NewUseList: TStringList);
  public
    { TODO -cRefactor : Consider replacing Model with an interface. }
    //
    Constructor Create(Model: TBaseModel);
    Destructor Destroy; override;
    property MfChdStartingHead: TModflowBoundaryDisplayTimeList
      read FMfChdStartingHead;
    property MfChdEndingHead: TModflowBoundaryDisplayTimeList
      read FMfChdEndingHead;
    procedure InvalidateAllTimeLists; override;
  end;

  TCustomTransientArrayItem = class(TCollectionItem)
  private
    FFileName: string;
    FUniform: boolean;
    FArrayName: string;
  public
    procedure Assign(Source: TPersistent); override;
  published
    property ArrayName: string read FArrayName write FArrayName;
    property FileName: string read FFileName write FFileName;
    property Uniform: boolean read FUniform write FUniform;
  end;

  TTransientMultItem = class(TCustomTransientArrayItem)
  private
    FUniformValue: double;
  public
    procedure Assign(Source: TPersistent); override;
  published
    property UniformValue: double read FUniformValue write FUniformValue;
  end;

  TTransientZoneItem = class(TCustomTransientArrayItem)
  private
    FUniformValue: integer;
  public
    procedure Assign(Source: TPersistent); override;
  published
    property UniformValue: integer read FUniformValue write FUniformValue;
  end;

  TTransientMultCollection = class(TCollection)
  private
    function GetItem(Index: integer): TTransientMultItem;
    procedure SetItem(Index: integer; const Value: TTransientMultItem);
  public
    Constructor Create;
    function Add: TTransientMultItem;
    property Items[Index: integer]: TTransientMultItem
      read GetItem write SetItem; default;
  end;

  TTransientZoneCollection = class(TCollection)
  private
    function GetItem(Index: integer): TTransientZoneItem;
    procedure SetItem(Index: integer; const Value: TTransientZoneItem);
  public
    Constructor Create;
    function Add: TTransientZoneItem;
    property Items[Index: integer]: TTransientZoneItem
      read GetItem write SetItem; default;
  end;

  TLpfSelection = class(TModflowPackageSelection)
  private
    FUseSaturatedThickness: boolean;
    FUseConstantCV: boolean;
    FUseCvCorrection: boolean;
    FUseVerticalFlowCorrection: boolean;
    FUseStorageCoefficient: boolean;
    FMultZoneArraysExported: boolean;
    FNoParCheck: Boolean;
    procedure SetUseConstantCV(const Value: boolean);
    procedure SetUseCvCorrection(const Value: boolean);
    procedure SetUseSaturatedThickness(const Value: boolean);
    procedure SetUseVerticalFlowCorrection(const Value: boolean);
    procedure SetUseStorageCoefficient(const Value: boolean);
    procedure SetNoParCheck(const Value: Boolean);
  public
    procedure InitializeVariables; override;
    procedure Assign(Source: TPersistent); override;
    { TODO -cRefactor : Consider replacing Model with an interface. }
    //
    Constructor Create(Model: TBaseModel);
    destructor Destroy; override;
    property MultZoneArraysExported: boolean read FMultZoneArraysExported
      write FMultZoneArraysExported;
  published
    // CONSTANTCV
    property UseConstantCV: boolean read FUseConstantCV write SetUseConstantCV;
    // THICKSTRT
    property UseSaturatedThickness: boolean read FUseSaturatedThickness
      write SetUseSaturatedThickness;
    // inverse of NOCVCORRECTION
    property UseCvCorrection: boolean read FUseCvCorrection
      write SetUseCvCorrection default True;
    // NOVFC
    property UseVerticalFlowCorrection: boolean read FUseVerticalFlowCorrection
      write SetUseVerticalFlowCorrection default True;
    // STORAGECOEFFICIENT option
    property UseStorageCoefficient: boolean read FUseStorageCoefficient
      write SetUseStorageCoefficient;
    // NOPARCHECK
    property NoParCheck: Boolean read FNoParCheck write SetNoParCheck;
  end;

  TCellAveraging = (caHarmonic, caLogarithmic, caArithLog);

  TNpfPackage = class(TModflowPackageSelection)
  private
    FCellAveraging: TCellAveraging;
    FPerched: Boolean;
    FUseSaturatedThickness: boolean;
    FTimeVaryingVerticalConductance: boolean;
    FUseNewtonRaphson: boolean;
    FApplyHeadDampening: boolean;
    FDewatered: boolean;
    procedure SetCellAveraging(const Value: TCellAveraging);
    procedure SetApplyHeadDampening(const Value: boolean);
    procedure SetDewatered(const Value: boolean);
    procedure SetPerched(const Value: Boolean);
    procedure SetTimeVaryingVerticalConductance(const Value: boolean);
    procedure SetUseNewtonRaphson(const Value: boolean);
    procedure SetUseSaturatedThickness(const Value: boolean);
  public
    procedure InitializeVariables; override;
    procedure Assign(Source: TPersistent); override;
    { TODO -cRefactor : Consider replacing Model with an interface. }
    //
    Constructor Create(Model: TBaseModel);
  published
    // CELL_AVERAGING
    property CellAveraging: TCellAveraging read FCellAveraging
      write SetCellAveraging stored True;
    // THICKSTRT
    property UseSaturatedThickness: boolean read FUseSaturatedThickness
      write SetUseSaturatedThickness stored True;
    // VARIABLECV
    property TimeVaryingVerticalConductance: boolean
      read FTimeVaryingVerticalConductance
      write SetTimeVaryingVerticalConductance stored True;
    // DEWATERED. Only used if @link(TimeVaryingVerticalConductance) is true;
    property Dewatered: boolean read FDewatered write SetDewatered stored True;
    // PERCHED
    property Perched: Boolean read FPerched write SetPerched stored True;
    // NEWTON (Wetting  can not be used if @name is true.)
    property UseNewtonRaphson: boolean read FUseNewtonRaphson
      write SetUseNewtonRaphson stored True;
    // NEWTON_HEAD_DAMPENING
    property ApplyHeadDampening: boolean read FApplyHeadDampening
      write SetApplyHeadDampening stored True;
  end;

  TStorageChoice = (scSpecificStorage, scStorageCoefficient);

  TStoPackage = class(TModflowPackageSelection)
  private
    FUseNewtonRaphson: Boolean;
    FStorageChoice: TStorageChoice;
    procedure SetStorageChoice(const Value: TStorageChoice);
    procedure SetUseNewtonRaphson(const Value: Boolean);
  public
    procedure InitializeVariables; override;
    procedure Assign(Source: TPersistent); override;
    { TODO -cRefactor : Consider replacing Model with an interface. }
    //
    Constructor Create(Model: TBaseModel);
  published
    // STORAGECOEFFICIENT
    property StorageChoice: TStorageChoice read FStorageChoice
      write SetStorageChoice stored True;
    // NEWTON
    property UseNewtonRaphson: Boolean read FUseNewtonRaphson
      write SetUseNewtonRaphson stored True;
  end;

  THDryPrintOption = (hpoDontPrintHdry, hpoPrintHdry);

  TUpwPackageSelection = class(TModflowPackageSelection)
  private
    FHDryPrintOption: THDryPrintOption;
    FNoParCheck: Boolean;
    procedure SetHDryPrintOption(const Value: THDryPrintOption);
    procedure SetNoParCheck(const Value: Boolean);
  public
    procedure Assign(Source: TPersistent); override;
    { TODO -cRefactor : Consider replacing Model with an interface. }
    //
    Constructor Create(Model: TBaseModel);
    destructor Destroy; override;
    procedure InitializeVariables; override;
  published
    property HDryPrintOption: THDryPrintOption read FHDryPrintOption
      write SetHDryPrintOption stored True;
    property NoParCheck: Boolean read FNoParCheck write SetNoParCheck;
  end;

  THufReferenceChoice = (hrcModelTop, hrcReferenceLayer);

  THufPackageSelection = class(TModflowPackageSelection)
  private
    FSaveHeads: boolean;
    FSaveFlows: boolean;
    FReferenceChoice: THufReferenceChoice;
    procedure SetSaveFlows(const Value: boolean);
    procedure SetSaveHeads(const Value: boolean);
    procedure SetReferenceChoice(const Value: THufReferenceChoice);
  public
    procedure Assign(Source: TPersistent); override;
    { TODO -cRefactor : Consider replacing Model with an interface. }
    //
    Constructor Create(Model: TBaseModel);
    procedure InitializeVariables; override;
  published
    property SaveHeads: boolean read FSaveHeads write SetSaveHeads default True;
    property SaveFlows: boolean read FSaveFlows write SetSaveFlows default True;
    property ReferenceChoice: THufReferenceChoice read FReferenceChoice
      write SetReferenceChoice;
  end;

  TPcgMethod = (pmCholesky, pmPolynomial);
  TPcgPrintSelection = (ppsAll, ppsIterations, ppsNone, ppsFail);
  TPcgEstimateMaxEigenvalue = (peeEstimate, peeDontEstimate);
  TPcgDryConvertOption = (dcoConvertWhenSurrounded, dcoConvertWhenNoFlow);

  TPcgSelection = class(TModflowPackageSelection)
  private
    FRELAX: TRealStorage;
    FNBPOL: TPcgEstimateMaxEigenvalue;
    FMUTPCG: TPcgPrintSelection;
    FRCLOSE: TRealStorage;
    FDAMPPCG: TRealStorage;
    FHCLOSE: TRealStorage;
    FNPCOND: TPcgMethod;
    FMXITER: integer;
    FITER1: integer;
    FIPRPCG: integer;
    FDAMPPCGT: TRealStorage;
    FIHCOFADD: TPcgDryConvertOption;
    procedure SetDAMPPCG(const Value: TRealStorage);
    procedure SetHCLOSE(const Value: TRealStorage);
    procedure SetIPRPCG(const Value: integer);
    procedure SetITER1(const Value: integer);
    procedure SetMUTPCG(const Value: TPcgPrintSelection);
    procedure SetMXITER(const Value: integer);
    procedure SetNBPOL(const Value: TPcgEstimateMaxEigenvalue);
    procedure SetNPCOND(const Value: TPcgMethod);
    procedure SetRCLOSE(const Value: TRealStorage);
    procedure SetRELAX(const Value: TRealStorage);
    procedure SetDAMPPCGT(const Value: TRealStorage);
    procedure SetIHCOFADD(const Value: TPcgDryConvertOption);
  public
    procedure Assign(Source: TPersistent); override;
    { TODO -cRefactor : Consider replacing Model with an interface. }
    //
    Constructor Create(Model: TBaseModel);
    Destructor Destroy; override;
    procedure InitializeVariables; override;
  published
    property MXITER: integer read FMXITER write SetMXITER default 20;
    property ITER1: integer read FITER1 write SetITER1 default 30;
    property NPCOND: TPcgMethod read FNPCOND write SetNPCOND;
    property HCLOSE: TRealStorage read FHCLOSE write SetHCLOSE;
    property RCLOSE: TRealStorage read FRCLOSE write SetRCLOSE;
    property RELAX: TRealStorage read FRELAX write SetRELAX;
    property NBPOL: TPcgEstimateMaxEigenvalue read FNBPOL write SetNBPOL;
    property IPRPCG: integer read FIPRPCG write SetIPRPCG default 1;
    property MUTPCG: TPcgPrintSelection read FMUTPCG write SetMUTPCG;
    property DAMPPCG: TRealStorage read FDAMPPCG write SetDAMPPCG;
    property DAMPPCGT: TRealStorage read FDAMPPCGT write SetDAMPPCGT;
    property IHCOFADD: TPcgDryConvertOption read FIHCOFADD write SetIHCOFADD;
  end;

  TDamping = (dOrdinary, dAdaptive, dEnhanced);
  TConvergenceMode = (cmStandard, cmAdaptive, cmEnhanced);
  TProgressReporting = (prNone, prListing, prExternal);

  TPcgnSelection = class(TModflowPackageSelection)
  private
    FADAMP: TDamping;
    FITER_MI: integer;
    FCHGLIMIT: TRealStorage;
    FCLOSE_R: TRealStorage;
    FITER_MO: integer;
    FRELAX: TRealStorage;
    FRATE_C: TRealStorage;
    FUNIT_TS: boolean;
    FCLOSE_H: TRealStorage;
    FRATE_D: TRealStorage;
    FCNVG_LB: TRealStorage;
    FUNIT_PC: boolean;
    FDAMP_LB: TRealStorage;
    FDAMP: TRealStorage;
    FMCNVG: integer;
    FIFILL: integer;
    FIPUNIT: TProgressReporting;
    FACNVG: TConvergenceMode;
    procedure SetACNVG(const Value: TConvergenceMode);
    procedure SetADAMP(const Value: TDamping);
    procedure SetCHGLIMIT(const Value: TRealStorage);
    procedure SetCLOSE_H(const Value: TRealStorage);
    procedure SetCLOSE_R(const Value: TRealStorage);
    procedure SetCNVG_LB(const Value: TRealStorage);
    procedure SetDAMP(const Value: TRealStorage);
    procedure SetDAMP_LB(const Value: TRealStorage);
    procedure SetIFILL(const Value: integer);
    procedure SetIPUNIT(const Value: TProgressReporting);
    procedure SetITER_MI(const Value: integer);
    procedure SetITER_MO(const Value: integer);
    procedure SetMCNVG(const Value: integer);
    procedure SetRATE_C(const Value: TRealStorage);
    procedure SetRATE_D(const Value: TRealStorage);
    procedure SetRELAX(const Value: TRealStorage);
    procedure SetUNIT_PC(const Value: boolean);
    procedure SetUNIT_TS(const Value: boolean);
  public
    procedure Assign(Source: TPersistent); override;
    { TODO -cRefactor : Consider replacing Model with an interface. }
    //
    Constructor Create(Model: TBaseModel);
    Destructor Destroy; override;
    procedure InitializeVariables; override;
  published
    // Line 1 variables

    // the maximum number of Picard (outer) iterations allowed
    property ITER_MO: integer read FITER_MO write SetITER_MO;
    //the maximum number of PCG (inner) iterations allowed
    property ITER_MI: integer read FITER_MI write SetITER_MI;
    //  the residual-based stopping criterion for iteration.
    property CLOSE_R: TRealStorage read FCLOSE_R write SetCLOSE_R;
    //  the head-based stopping criterion for iteration.
    property CLOSE_H: TRealStorage read FCLOSE_H write SetCLOSE_H;

    // Line 2 variables

    // relaxation parameter
    property RELAX: TRealStorage read FRELAX write SetRELAX;
    // fill level of the MIC preconditioner
    property IFILL: integer read FIFILL write SetIFILL;
    // integer variable: UNIT_PC is the unit number of an optional output file
    // where progress for the inner PCG iteration can be written.
    property UNIT_PC: boolean read FUNIT_PC write SetUNIT_PC;
    // integer variable: UNIT_TS is the unit number of an optional output file
    // where the actual time in the PCG solver is accumulated.
    property UNIT_TS: boolean read FUNIT_TS write SetUNIT_TS;

    // Line 3 variables - used only if ITER_MO > 1

    // ADAMP, integer variable: ADAMP defines the mode of damping
    // applied to the linear solution.
    property ADAMP: TDamping read FADAMP write SetADAMP;
    // DAMP restricts the damping parameter Theta
    property DAMP: TRealStorage read FDAMP write SetDAMP;
    // DAMP_LB, real variable: DAMP_LB represents a bound placed on Theta
    property DAMP_LB: TRealStorage read FDAMP_LB write SetDAMP_LB;
    // RATE_D, rate parameter
    property RATE_D: TRealStorage read FRATE_D write SetRATE_D;
    // This variable limits the maximum head change applicable to the
    // updated hydraulic heads in a Picard iteration.
    property CHGLIMIT: TRealStorage read FCHGLIMIT write SetCHGLIMIT;

    // Line 4 variables - used only if ITER_MO > 1

    // ACNVG defines the mode of convergence applied to the PCG solver.
    property ACNVG: TConvergenceMode read FACNVG write SetACNVG;
    // CNVG_LB is the minimum value that the relative convergence epsilon
    //  is allowed to take under the self-adjusting convergence option.
    property CNVG_LB: TRealStorage read FCNVG_LB write SetCNVG_LB;
    // MCNVG increases the relative PCG convergence criteria by
    // a power equal to MCNVG
    property MCNVG: integer read FMCNVG write SetMCNVG;
    // this option results in variable enhancement of epsilon.
    property RATE_C: TRealStorage read FRATE_C write SetRATE_C;
    // Variable IPUNIT enables progress reporting for the Picard iteration.
    property IPUNIT: TProgressReporting read FIPUNIT write SetIPUNIT;
  end;

  TGmgPackageSelection = class(TModflowPackageSelection)
  private
    FISM: integer;
    FCHGLIMIT: TRealStorage;
    FISC: integer;
    FIADAMP: integer;
    FDUP: TRealStorage;
    FRELAX: TRealStorage;
    FIITER: integer;
    FRCLOSE: TRealStorage;
    FIUNITMHC: Boolean;
    FDLOW: TRealStorage;
    FDAMP: TRealStorage;
    FHCLOSE: TRealStorage;
    FMXITER: integer;
    FIOUTGMG: integer;
    procedure SetCHGLIMIT(const Value: TRealStorage);
    procedure SetDAMP(const Value: TRealStorage);
    procedure SetDLOW(const Value: TRealStorage);
    procedure SetDUP(const Value: TRealStorage);
    procedure SetHCLOSE(const Value: TRealStorage);
    procedure SetIADAMP(const Value: integer);
    procedure SetIITER(const Value: integer);
    procedure SetIOUTGMG(const Value: integer);
    procedure SetISC(const Value: integer);
    procedure SetISM(const Value: integer);
    procedure SetIUNITMHC(const Value: Boolean);
    procedure SetMXITER(const Value: integer);
    procedure SetRCLOSE(const Value: TRealStorage);
    procedure SetRELAX(const Value: TRealStorage);
  public
    procedure Assign(Source: TPersistent); override;
    { TODO -cRefactor : Consider replacing Model with an interface. }
    //
    Constructor Create(Model: TBaseModel);
    Destructor Destroy; override;
    procedure InitializeVariables; override;
  published
    property RCLOSE: TRealStorage read FRCLOSE write SetRCLOSE;
    property IITER: integer read FIITER write SetIITER;
    property HCLOSE: TRealStorage read FHCLOSE write SetHCLOSE;
    property MXITER: integer read FMXITER write SetMXITER;
    property DAMP: TRealStorage read FDAMP write SetDAMP;
    property IADAMP: integer read FIADAMP write SetIADAMP;
    property IOUTGMG: integer read FIOUTGMG write SetIOUTGMG;
    property IUNITMHC: Boolean read FIUNITMHC write SetIUNITMHC;
    property ISM: integer read FISM write SetISM;
    property ISC: integer read FISC write SetISC;
    property DUP: TRealStorage read FDUP write SetDUP;
    property DLOW: TRealStorage read FDLOW write SetDLOW;
    property CHGLIMIT: TRealStorage read FCHGLIMIT write SetCHGLIMIT;
    property RELAX: TRealStorage read FRELAX write SetRELAX;
  end;

  TSIPPackageSelection = class(TModflowPackageSelection)
  private
    FNPARM: integer;
    FIPRSIP: integer;
    FHCLOSE: TRealStorage;
    FIPCALC: integer;
    FMXITER: integer;
    FWSEED: TRealStorage;
    FACCL: TRealStorage;
    procedure SetACCL(const Value: TRealStorage);
    procedure SetHCLOSE(const Value: TRealStorage);
    procedure SetIPCALC(const Value: integer);
    procedure SetIPRSIP(const Value: integer);
    procedure SetMXITER(const Value: integer);
    procedure SetNPARM(const Value: integer);
    procedure SetWSEED(const Value: TRealStorage);
  public
    procedure Assign(Source: TPersistent); override;
    { TODO -cRefactor : Consider replacing Model with an interface. }
    //
    Constructor Create(Model: TBaseModel);
    Destructor Destroy; override;
    procedure InitializeVariables; override;
  published
    property MXITER: integer read FMXITER write SetMXITER;
    property NPARM: integer read FNPARM write SetNPARM;
    property ACCL: TRealStorage read FACCL write SetACCL;
    property HCLOSE: TRealStorage read FHCLOSE write SetHCLOSE;
    property IPCALC: integer read FIPCALC write SetIPCALC;
    property WSEED: TRealStorage read FWSEED write SetWSEED;
    property IPRSIP: integer read FIPRSIP write SetIPRSIP;
  end;

  TDE4PackageSelection = class(TModflowPackageSelection)
  private
    FMUTD4: integer;
    FIFREQ: integer;
    FMXUP: integer;
    FITMX: integer;
    FHCLOSE: TRealStorage;
    FMXBW: integer;
    FIPRD4: integer;
    FMXLOW: integer;
    FACCL: TRealStorage;
    procedure SetACCL(const Value: TRealStorage);
    procedure SetHCLOSE(const Value: TRealStorage);
    procedure SetIFREQ(const Value: integer);
    procedure SetIPRD4(const Value: integer);
    procedure SetITMX(const Value: integer);
    procedure SetMUTD4(const Value: integer);
    procedure SetMXBW(const Value: integer);
    procedure SetMXLOW(const Value: integer);
    procedure SetMXUP(const Value: integer);
  public